<?xml version="1.0" encoding="UTF-8"?>

<!-- generated on 2023-02-17 13:57:09 by Eclipse SUMO polyconvert Version 1.14.1
<configuration xmlns:xsi="http://www.w3.org/2001/XMLSchema-instance" xsi:noNamespaceSchemaLocation="http://sumo.dlr.de/xsd/polyconvertConfiguration.xsd">

    <input>
        <net-file value="osm.net.xml"/>
        <osm-files value="osm_bbox.osm.xml.gz"/>
        <osm.keep-full-type value="true"/>
        <type-file value="E:\Softwares\sumo\data\typemap\osmPolyconvert.typ.xml"/>
    </input>

    <output>
        <output-file value="osm.poly.xml"/>
    </output>

    <report>
        <verbose value="true"/>
    </report>

</configuration>
-->

<additional xmlns:xsi="http://www.w3.org/2001/XMLSchema-instance" xsi:noNamespaceSchemaLocation="http://sumo.dlr.de/xsd/additional_file.xsd">
    <location netOffset="-336351.98,-3324435.95" convBoundary="-0.00,-0.00,7631.23,5125.85" origBoundary="31.302376,30.040388,31.381464,30.086696" projParameter="+proj=utm +zone=36 +ellps=WGS84 +datum=WGS84 +units=m +no_defs"/>

    <poly id="1120307046" type="building.apartments" color="255,230,230" fill="1" layer="-1.00" shape="3100.531984,2167.641160 3117.959220,2169.781844 3120.521419,2149.058781 3103.094313,2146.929175 3100.531984,2167.641160"/>
    <poly id="1120307047" type="building.apartments" color="255,230,230" fill="1" layer="-1.00" shape="3096.142427,2198.622867 3098.630469,2177.446365 3118.026551,2179.702485 3115.538311,2200.867898 3096.142427,2198.622867"/>
    <poly id="1120307048" type="building.apartments" color="255,230,230" fill="1" layer="-1.00" shape="3123.896152,2182.144526 3137.639652,2183.618321 3135.701344,2201.494378 3121.957866,2200.020587 3123.896152,2182.144526"/>
    <poly id="1120307049" type="building.apartments" color="255,230,230" fill="1" layer="-1.00" shape="3143.838375,2204.690490 3159.852311,2206.463819 3162.148984,2186.043946 3146.125216,2184.259669 3143.838375,2204.690490"/>
    <poly id="1120307050" type="building.apartments" color="255,230,230" fill="1" layer="-1.00" shape="3164.006639,2204.352497 3166.052374,2187.228705 3180.648137,2188.956198 3178.602381,2206.079987 3164.006639,2204.352497"/>
    <poly id="1120307051" type="building.apartments" color="255,230,230" fill="1" layer="-1.00" shape="3183.459533,2206.541388 3198.364100,2208.286580 3200.768346,2187.964923 3185.873393,2186.219587 3183.459533,2206.541388"/>
    <poly id="1120307052" type="building.apartments" color="255,230,230" fill="1" layer="-1.00" shape="3208.890527,2212.667375 3211.463725,2193.352053 3229.356882,2195.707840 3226.783653,2215.023157 3208.890527,2212.667375"/>
    <poly id="1120307053" type="building.apartments" color="255,230,230" fill="1" layer="-1.00" shape="3211.550126,2184.049972 3213.982322,2162.996264 3231.214132,2164.962601 3228.782065,2186.027387 3211.550126,2184.049972"/>
    <poly id="1120307054" type="building.apartments" color="255,230,230" fill="1" layer="-1.00" shape="3191.817769,2184.525643 3194.414922,2160.232531 3209.346052,2161.811070 3206.748868,2186.104177 3191.817769,2184.525643"/>
    <poly id="1120307055" type="building.apartments" color="255,230,230" fill="1" layer="-1.00" shape="3166.225707,2178.601578 3168.908768,2154.251777 3182.102110,2155.689295 3179.409380,2180.039232 3166.225707,2178.601578"/>
    <poly id="1120307056" type="building.apartments" color="255,230,230" fill="1" layer="-1.00" shape="3149.163045,2178.317893 3152.285885,2154.371851 3167.280042,2156.304155 3164.157170,2180.250192 3149.163045,2178.317893"/>
    <poly id="1120307057" type="building.apartments" color="255,230,230" fill="1" layer="-1.00" shape="3212.552314,2141.599687 3216.285658,2104.597031 3233.417438,2106.309863 3229.693517,2143.301288 3212.552314,2141.599687"/>
    <poly id="1120307058" type="building.apartments" color="255,230,230" fill="1" layer="-1.00" shape="3099.865237,2130.469729 3106.471076,2090.764632 3125.078719,2093.830419 3118.482457,2133.535362 3099.865237,2130.469729"/>
    <poly id="1120307059" type="building.apartments" color="255,230,230" fill="1" layer="-1.00" shape="3137.202317,2082.723471 3139.477938,2064.831421 3160.403306,2067.464441 3158.127651,2085.356486 3137.202317,2082.723471"/>
    <poly id="1120307060" type="building.apartments" color="255,230,230" fill="1" layer="-1.00" shape="3110.595605,2074.685857 3112.696324,2058.691986 3130.260961,2060.985896 3128.160218,2076.979763 3110.595605,2074.685857"/>
    <poly id="1120307061" type="building.apartments" color="255,230,230" fill="1" layer="-1.00" shape="3113.173880,2053.740850 3115.053422,2036.464270 3135.268110,2038.630914 3133.388698,2055.918572 3113.173880,2053.740850"/>
    <poly id="1120307062" type="building.apartments" color="255,230,230" fill="1" layer="-1.00" shape="3116.370651,2032.886607 3117.721566,2018.378044 3138.598135,2020.302259 3137.247194,2034.810819 3116.370651,2032.886607"/>
    <poly id="1120307063" type="building.apartments" color="255,230,230" fill="1" layer="-1.00" shape="3142.398697,2059.456716 3144.015837,2044.024176 3164.722038,2046.172630 3163.105031,2061.616250 3142.398697,2059.456716"/>
    <poly id="1120307064" type="building.apartments" color="255,230,230" fill="1" layer="-1.00" shape="3142.882412,2037.045660 3144.186891,2024.644043 3164.671059,2026.773562 3163.366719,2039.186258 3142.882412,2037.045660"/>
    <poly id="1120307065" type="building.apartments" color="255,230,230" fill="1" layer="-1.00" shape="3121.376108,2014.389435 3122.037796,2001.553750 3140.084012,2002.477139 3139.422303,2015.312821 3121.376108,2014.389435"/>
    <poly id="1120307066" type="building.apartments" color="255,230,230" fill="1" layer="-1.00" shape="3122.586069,1994.173837 3123.409487,1982.510873 3140.968391,1983.740672 3140.144955,1995.403634 3122.586069,1994.173837"/>
    <poly id="1120307067" type="building.apartments" color="255,230,230" fill="1" layer="-1.00" shape="3147.542383,1996.803571 3149.154867,1981.049619 3167.967482,1982.948516 3166.354972,1998.702464 3147.542383,1996.803571"/>
    <poly id="1120307068" type="building.apartments" color="255,230,230" fill="1" layer="-1.00" shape="3121.078398,1974.740549 3122.343080,1958.282177 3142.712771,1959.825792 3141.438580,1976.295384 3121.078398,1974.740549"/>
    <poly id="1120307069" type="building.apartments" color="255,230,230" fill="1" layer="-1.00" shape="3154.595229,1962.612649 3171.121422,1963.779934 3170.224088,1976.330816 3153.707716,1975.174476 3154.595229,1962.612649"/>
    <poly id="1120307070" type="building.apartments" color="255,230,230" fill="1" layer="-1.00" shape="3185.153061,1989.006058 3187.614654,1964.670583 3205.712388,1966.480180 3203.260396,1990.815509 3185.153061,1989.006058"/>
    <poly id="1120307071" type="building.apartments" color="255,230,230" fill="1" layer="-1.00" shape="3208.645249,1989.761604 3210.955077,1968.909225 3224.477076,1970.386365 3222.157742,1991.249964 3208.645249,1989.761604"/>
    <poly id="1120307072" type="building.apartments" color="255,230,230" fill="1" layer="-1.00" shape="3242.376799,1977.808218 3257.903820,1979.234052 3255.427897,2005.908773 3244.226919,2004.885591 3242.525902,2023.179414 3228.196214,2021.858122 3229.487853,2007.904724 3239.491556,2008.823371 3239.766976,2005.881679 3242.376799,1977.808218"/>
    <poly id="1120307073" type="building.apartments" color="255,230,230" fill="1" layer="-1.00" shape="3204.260344,2016.453042 3206.212092,1997.501510 3216.188336,1998.520307 3215.376985,2006.380722 3219.017825,2006.748989 3217.877406,2017.840102 3204.260344,2016.453042"/>
    <poly id="1120307074" type="building.apartments" color="255,230,230" fill="1" layer="-1.00" shape="3182.478481,2017.257853 3184.264356,1998.175703 3203.277139,1999.916546 3201.501033,2019.009635 3182.478481,2017.257853"/>
    <poly id="1120307075" type="building.apartments" color="255,230,230" fill="1" layer="-1.00" shape="3266.588191,1996.844663 3268.934494,1973.852251 3254.245605,1972.369863 3251.889691,1995.362420 3266.588191,1996.844663"/>
    <poly id="1120307076" type="building.apartments" color="255,230,230" fill="1" layer="-1.00" shape="3250.145917,2025.961879 3252.709580,2005.981582 3266.640806,2007.752128 3264.086599,2027.721198 3250.145917,2025.961879"/>
    <poly id="1120307077" type="building.apartments" color="255,230,230" fill="1" layer="-1.00" shape="3267.339426,2025.944519 3269.608597,2006.267822 3287.207643,2008.273259 3284.938441,2027.949951 3267.339426,2025.944519"/>
    <poly id="1120307078" type="building.apartments" color="255,230,230" fill="1" layer="-1.00" shape="3294.200590,2032.914591 3296.575795,2011.906089 3314.048684,2013.857975 3311.673447,2034.866472 3294.200590,2032.914591"/>
    <poly id="1120307079" type="building.apartments" color="255,230,230" fill="1" layer="-1.00" shape="3293.599204,1997.538109 3295.511547,1977.855527 3311.178338,1978.946835 3309.713651,1998.911128 3293.599204,1997.538109"/>
    <poly id="1120307080" type="building.apartments" color="255,230,230" fill="1" layer="-1.00" shape="3277.139642,2000.282892 3279.585695,1972.876964 3287.454855,1973.560654 3285.018585,2000.977522 3277.139642,2000.282892"/>
    <poly id="1120307081" type="building.apartments" color="255,230,230" fill="1" layer="-1.00" shape="3336.674425,2044.557502 3361.206604,2045.885778 3360.183344,2064.380344 3335.651044,2063.040988 3336.674425,2044.557502"/>
    <poly id="1120307082" type="building.apartments" color="255,230,230" fill="1" layer="-1.00" shape="3362.896118,2104.382070 3364.867890,2078.169223 3389.349070,2079.974979 3387.377403,2106.198902 3362.896118,2104.382070"/>
    <poly id="1120307083" type="building.apartments" color="255,230,230" fill="1" layer="-1.00" shape="3328.716072,2084.814187 3330.502089,2063.736663 3361.001793,2066.286251 3359.206239,2087.374991 3328.716072,2084.814187"/>
    <poly id="1120307084" type="building.apartments" color="255,230,230" fill="1" layer="-1.00" shape="3323.929164,2099.793936 3325.622770,2085.624082 3348.187659,2088.277950 3346.503666,2102.447660 3323.929164,2099.793936"/>
    <poly id="1120307085" type="building.apartments" color="255,230,230" fill="1" layer="-1.00" shape="3320.035906,2123.174660 3322.062976,2106.738492 3344.957714,2109.531667 3342.920970,2125.967970 3320.035906,2123.174660"/>
    <poly id="1120307086" type="building.apartments" color="255,230,230" fill="1" layer="-1.00" shape="2814.900843,2199.108889 2859.781510,2203.209873 2864.178903,2155.621651 2860.754076,2140.972066 2854.804156,2134.352051 2845.674701,2130.560912 2833.970469,2130.731655 2824.304687,2139.752258 2819.213604,2152.342210 2814.900843,2199.108889"/>
    <poly id="1120307087" type="building.apartments" color="255,230,230" fill="1" layer="-1.00" shape="2633.997166,2306.043601 2671.091733,2309.215486 2668.971101,2333.701378 2631.876615,2330.529504 2633.997166,2306.043601"/>
    <poly id="1120307088" type="building.apartments" color="255,230,230" fill="1" layer="-1.00" shape="2599.514684,2303.454470 2624.809387,2306.177817 2622.718321,2325.419783 2597.423661,2322.696443 2599.514684,2303.454470"/>
    <poly id="1120307089" type="building.apartments" color="255,230,230" fill="1" layer="-1.00" shape="2594.094801,2292.858185 2618.312102,2295.098407 2619.539229,2282.065936 2595.321899,2279.825710 2594.094801,2292.858185"/>
    <poly id="1120307090" type="building.apartments" color="255,230,230" fill="1" layer="-1.00" shape="2628.649780,2292.486376 2661.451419,2296.851679 2664.060743,2277.435872 2631.259049,2273.070558 2628.649780,2292.486376"/>
    <poly id="1120307091" type="building.apartments" color="255,230,230" fill="1" layer="-1.00" shape="2599.029555,2276.190875 2600.549789,2262.100983 2626.047045,2264.821378 2624.526780,2278.911266 2599.029555,2276.190875"/>
    <poly id="1120307092" type="building.apartments" color="255,230,230" fill="1" layer="-1.00" shape="2634.907302,2265.368174 2662.021372,2268.530631 2664.081549,2251.129346 2636.967275,2247.955798 2634.907302,2265.368174"/>
    <poly id="1120307093" type="building.apartments" color="255,230,230" fill="1" layer="-1.00" shape="2599.331440,2255.932995 2622.212277,2259.755832 2624.644549,2245.386566 2601.763522,2241.552639 2599.331440,2255.932995"/>
    <poly id="1120307094" type="building.apartments" color="255,230,230" fill="1" layer="-1.00" shape="2633.927849,2242.546061 2667.635001,2246.177597 2669.361786,2230.377515 2635.654425,2226.734888 2633.927849,2242.546061"/>
    <poly id="1120307095" type="building.apartments" color="255,230,230" fill="1" layer="-1.00" shape="2601.290865,2233.622225 2602.791904,2220.197753 2626.262384,2222.792567 2624.761479,2236.228118 2601.290865,2233.622225"/>
    <poly id="1120307096" type="building.apartments" color="255,230,230" fill="1" layer="-1.00" shape="2643.882902,2224.297798 2679.006680,2227.864338 2681.126010,2207.247360 2646.002168,2203.680811 2643.882902,2224.297798"/>
    <poly id="1120307097" type="building.apartments" color="255,230,230" fill="1" layer="-1.00" shape="2603.418543,2214.246694 2626.924685,2216.641448 2628.402357,2202.275043 2604.896185,2199.880285 2603.418543,2214.246694"/>
    <poly id="1120307098" type="building.apartments" color="255,230,230" fill="1" layer="-1.00" shape="2603.943248,2193.398021 2626.520572,2196.238687 2628.206772,2182.944544 2605.629422,2180.103874 2603.943248,2193.398021"/>
    <poly id="1120307099" type="building.apartments" color="255,230,230" fill="1" layer="-1.00" shape="2641.991313,2188.540983 2672.041054,2191.316942 2673.717501,2173.389155 2643.667712,2170.613190 2641.991313,2188.540983"/>
    <poly id="1120307100" type="building.apartments" color="255,230,230" fill="1" layer="-1.00" shape="2609.628851,2177.296206 2634.299510,2180.849045 2636.349275,2165.376808 2611.048839,2161.622536 2609.628851,2177.296206"/>
    <poly id="1120307101" type="building.apartments" color="255,230,230" fill="1" layer="-1.00" shape="2646.140311,2161.642050 2674.252510,2165.122543 2676.385566,2148.086026 2648.273325,2144.605527 2646.140311,2161.642050"/>
    <poly id="1120307102" type="building.apartments" color="255,230,230" fill="1" layer="-1.00" shape="2610.265321,2154.195518 2630.374059,2156.373864 2632.635353,2141.519333 2612.321212,2139.144440 2610.265321,2154.195518"/>
    <poly id="1120307103" type="building.apartments" color="255,230,230" fill="1" layer="-1.00" shape="2632.455205,2132.487169 2645.308977,2133.773812 2646.430006,2122.716143 2633.576222,2121.429498 2632.455205,2132.487169"/>
    <poly id="1120307104" type="building.apartments" color="255,230,230" fill="1" layer="-1.00" shape="2628.062677,2114.326540 2654.564874,2117.165369 2655.601716,2107.605493 2618.881102,2103.674334 2617.402861,2117.342351 2627.621243,2118.434675 2628.062677,2114.326540"/>
    <poly id="1120307105" type="building.apartments" color="255,230,230" fill="1" layer="-1.00" shape="2574.484726,2138.034404 2578.459002,2100.506862 2599.387824,2102.706432 2595.413317,2140.222880 2574.484726,2138.034404"/>
    <poly id="1120307106" type="building.apartments" color="255,230,230" fill="1" layer="-1.00" shape="2542.571690,2125.885307 2546.203054,2093.273700 2564.622140,2095.299257 2560.990723,2127.910856 2542.571690,2125.885307"/>
    <poly id="1120307107" type="building.apartments" color="255,230,230" fill="1" layer="-1.00" shape="2519.703812,2128.248219 2522.305634,2090.518995 2541.553301,2091.834008 2538.941774,2129.563365 2519.703812,2128.248219"/>
    <poly id="1120307108" type="building.apartments" color="255,230,230" fill="1" layer="-1.00" shape="2491.036561,2123.091209 2494.192367,2084.345080 2513.665523,2085.911718 2510.509811,2124.668922 2491.036561,2123.091209"/>
    <poly id="1120307109" type="building.apartments" color="255,230,230" fill="1" layer="-1.00" shape="2463.900264,2117.778858 2467.338171,2083.163538 2483.697097,2084.764573 2480.268781,2119.379745 2463.900264,2117.778858"/>
    <poly id="1120307110" type="building.apartments" color="255,230,230" fill="1" layer="-1.00" shape="2458.300346,2119.944844 2461.484077,2083.116108 2440.947464,2081.365572 2437.763801,2118.194317 2458.300346,2119.944844"/>
    <poly id="1120307111" type="building.apartments" color="255,230,230" fill="1" layer="-1.00" shape="2415.861483,2120.643094 2419.820892,2082.794198 2442.709858,2085.164348 2438.740732,2123.013373 2415.861483,2120.643094"/>
    <poly id="1120307112" type="building.apartments" color="255,230,230" fill="1" layer="-1.00" shape="2390.194156,2116.872513 2393.141423,2081.033827 2415.134666,2082.818397 2412.187329,2118.657075 2390.194156,2116.872513"/>
    <poly id="1120307113" type="building.apartments" color="255,230,230" fill="1" layer="-1.00" shape="2366.169540,2078.402030 2382.796589,2080.531106 2378.984349,2109.974944 2362.357342,2107.845876 2366.169540,2078.402030"/>
    <poly id="1120307114" type="building.apartments" color="255,230,230" fill="1" layer="-1.00" shape="2334.201308,2078.326600 2355.264972,2079.847514 2353.433468,2104.938978 2332.360209,2103.418210 2334.201308,2078.326600"/>
    <poly id="1120307115" type="building.apartments" color="255,230,230" fill="1" layer="-1.00" shape="3095.438508,2397.231905 3116.431882,2399.941415 3113.474806,2422.676739 3092.481475,2419.967235 3095.438508,2397.231905"/>
    <poly id="1120307116" type="building.apartments" color="255,230,230" fill="1" layer="-1.00" shape="3060.840197,2415.118179 3063.293299,2388.244158 3086.505171,2390.333753 3084.061493,2417.196544 3060.840197,2415.118179"/>
    <poly id="1120307117" type="building.apartments" color="255,230,230" fill="1" layer="-1.00" shape="3044.019554,2414.875495 3045.516206,2391.851027 3060.380171,2392.809532 3058.892967,2415.822773 3044.019554,2414.875495"/>
    <poly id="1120307118" type="building.apartments" color="255,230,230" fill="1" layer="-1.00" shape="3007.823041,2409.106344 3010.764357,2382.657527 2991.911228,2380.582156 2988.969956,2407.030980 3007.823041,2409.106344"/>
    <poly id="1120307119" type="building.apartments" color="255,230,230" fill="1" layer="-1.00" shape="3033.857863,2411.032743 3037.030023,2385.201368 3017.603898,2382.846076 3014.431620,2408.666376 3033.857863,2411.032743"/>
    <poly id="1120307120" type="building.apartments" color="255,230,230" fill="1" layer="-1.00" shape="2967.487346,2405.160264 2984.893622,2406.547202 2986.987300,2380.166159 2969.786942,2378.354961 2967.487346,2405.160264"/>
    <poly id="1120307121" type="building.apartments" color="255,230,230" fill="1" layer="-1.00" shape="2945.037089,2401.075488 2962.436697,2403.327166 2965.560005,2379.447543 2948.170001,2377.195718 2945.037089,2401.075488"/>
    <poly id="1120307122" type="building.apartments" color="255,230,230" fill="1" layer="-1.00" shape="2894.359209,2396.127561 2912.928611,2398.583814 2916.240372,2373.748059 2897.670930,2371.291798 2894.359209,2396.127561"/>
    <poly id="1120307123" type="building.apartments" color="255,230,230" fill="1" layer="-1.00" shape="2939.855344,2401.494693 2943.172013,2376.991447 2926.863064,2374.812578 2923.546431,2399.315831 2939.855344,2401.494693"/>
    <poly id="1120307124" type="building.apartments" color="255,230,230" fill="1" layer="-1.00" shape="2868.801397,2394.516013 2871.179017,2367.787136 2850.912499,2365.998675 2848.534927,2392.727557 2868.801397,2394.516013"/>
    <poly id="1120307125" type="building.apartments" color="255,230,230" fill="1" layer="-1.00" shape="2890.090857,2395.702046 2893.172101,2370.271019 2874.374176,2368.017671 2871.283171,2393.437763 2890.090857,2395.702046"/>
    <poly id="1120307126" type="building.apartments" color="255,230,230" fill="1" layer="-1.00" shape="2823.034218,2385.117954 2839.617268,2386.915760 2842.101073,2364.165066 2825.518152,2362.378338 2823.034218,2385.117954"/>
    <poly id="1120307127" type="building.apartments" color="255,230,230" fill="1" layer="-1.00" shape="2795.892354,2383.330145 2797.432660,2360.027837 2773.350596,2358.450396 2771.810340,2381.752710 2795.892354,2383.330145"/>
    <poly id="1120307128" type="building.apartments" color="255,230,230" fill="1" layer="-1.00" shape="2818.737148,2388.672628 2820.762877,2364.930903 2805.064223,2363.607986 2803.038528,2387.349715 2818.737148,2388.672628"/>
    <poly id="1120307129" type="building.apartments" color="255,230,230" fill="1" layer="-1.00" shape="2776.574930,2415.516526 2794.602286,2417.171240 2796.602619,2395.658089 2778.565588,2394.003512 2776.574930,2415.516526"/>
    <poly id="1120307130" type="building.apartments" color="255,230,230" fill="1" layer="-1.00" shape="2800.740916,2418.888614 2817.738474,2420.680335 2819.935287,2400.073347 2802.937536,2398.270538 2800.740916,2418.888614"/>
    <poly id="1120307131" type="building.apartments" color="255,230,230" fill="1" layer="-1.00" shape="2825.367925,2422.797224 2844.380781,2425.246889 2847.216077,2403.455517 2828.203185,2401.005845 2825.367925,2422.797224"/>
    <poly id="1120307132" type="building.apartments" color="255,230,230" fill="1" layer="-1.00" shape="2846.503573,2424.018672 2864.980680,2426.099277 2867.382562,2405.001544 2848.905422,2402.920933 2846.503573,2424.018672"/>
    <poly id="1120307133" type="building.apartments" color="255,230,230" fill="1" layer="-1.00" shape="2867.842155,2425.270456 2882.092651,2426.481552 2883.699243,2407.712320 2869.448724,2406.501221 2867.842155,2425.270456"/>
    <poly id="1120307134" type="building.apartments" color="255,230,230" fill="1" layer="-1.00" shape="2888.837865,2426.815509 2905.962764,2428.084483 2907.358430,2409.395932 2890.243144,2408.126814 2888.837865,2426.815509"/>
    <poly id="1120307135" type="building.apartments" color="255,230,230" fill="1" layer="-1.00" shape="2911.006520,2430.106111 2927.166360,2431.322677 2928.726918,2410.713913 2912.567210,2409.508427 2911.006520,2430.106111"/>
    <poly id="1120307136" type="building.apartments" color="255,230,230" fill="1" layer="-1.00" shape="2928.977683,2427.250011 2946.893333,2429.183741 2949.316482,2406.888476 2931.410438,2404.954601 2928.977683,2427.250011"/>
    <poly id="1120307137" type="building.apartments" color="255,230,230" fill="1" layer="-1.00" shape="2968.907167,2433.762647 2971.843797,2412.291327 2953.621345,2409.818833 2950.675269,2431.301383 2968.907167,2433.762647"/>
    <poly id="1120307138" type="building.apartments" color="255,230,230" fill="1" layer="-1.00" shape="2974.658187,2433.368413 2990.403994,2435.289501 2992.913182,2414.921895 2977.157706,2413.000943 2974.658187,2433.368413"/>
    <poly id="1120307139" type="building.apartments" color="255,230,230" fill="1" layer="-1.00" shape="2995.455870,2434.561814 3012.553640,2436.618426 3015.102995,2415.695961 2997.995553,2413.639484 2995.455870,2434.561814"/>
    <poly id="1120307140" type="building.apartments" color="255,230,230" fill="1" layer="-1.00" shape="3017.454006,2414.907876 3036.405254,2417.103799 3034.020671,2437.425232 3015.069457,2435.229315 3017.454006,2414.907876"/>
    <poly id="1120307141" type="building.apartments" color="255,230,230" fill="1" layer="-1.00" shape="3066.452257,2450.854049 3068.756767,2429.003977 3050.871041,2427.136128 3049.521413,2430.470394 3048.566566,2448.986205 3066.452257,2450.854049"/>
    <poly id="1120307142" type="building.apartments" color="255,230,230" fill="1" layer="-1.00" shape="3073.130120,2451.200184 3086.898991,2452.451815 3088.795976,2431.749504 3075.027241,2430.508954 3073.130120,2451.200184"/>
    <poly id="1120307143" type="building.apartments" color="255,230,230" fill="1" layer="-1.00" shape="3204.298211,2451.662343 3226.750062,2453.885230 3230.556166,2415.928137 3208.113719,2413.694016 3204.298211,2451.662343"/>
    <poly id="1120307144" type="building.apartments" color="255,230,230" fill="1" layer="-1.00" shape="3126.862840,2495.768755 3148.975104,2497.852312 3150.823588,2478.447741 3128.711287,2476.364178 3126.862840,2495.768755"/>
    <poly id="1120307145" type="building.apartments" color="255,230,230" fill="1" layer="-1.00" shape="3154.080861,2500.826507 3168.039606,2502.541066 3171.018863,2478.674705 3157.069729,2476.960000 3154.080861,2500.826507"/>
    <poly id="1120307146" type="building.apartments" color="255,230,230" fill="1" layer="-1.00" shape="3175.874234,2501.540145 3187.962474,2502.605740 3189.918041,2480.616673 3177.829777,2479.551074 3175.874234,2501.540145"/>
    <poly id="1120307147" type="building.apartments" color="255,230,230" fill="1" layer="-1.00" shape="3191.353584,2505.039549 3208.492658,2507.295396 3211.716850,2483.026403 3194.577740,2480.770549 3191.353584,2505.039549"/>
    <poly id="1120307148" type="building.apartments" color="255,230,230" fill="1" layer="-1.00" shape="3210.788475,2508.015798 3227.001994,2509.620010 3229.536050,2484.307936 3213.332136,2482.703579 3210.788475,2508.015798"/>
    <poly id="1120307149" type="building.apartments" color="255,230,230" fill="1" layer="-1.00" shape="3228.773985,2510.126328 3230.871755,2483.989184 3247.370170,2485.289970 3245.272523,2511.438192 3228.773985,2510.126328"/>
    <poly id="1120307150" type="building.apartments" color="255,230,230" fill="1" layer="-1.00" shape="3127.777575,2522.161370 3128.800730,2507.003517 3152.737926,2508.594907 3151.714899,2523.763840 3127.777575,2522.161370"/>
    <poly id="1120307151" type="building.apartments" color="255,230,230" fill="1" layer="-1.00" shape="3126.094110,2545.609796 3128.150410,2527.898290 3154.876548,2530.967793 3152.820206,2548.679293 3126.094110,2545.609796"/>
    <poly id="1120307152" type="building.apartments" color="255,230,230" fill="1" layer="-1.00" shape="3122.868662,2567.129614 3124.696875,2548.323951 3149.590389,2550.699565 3147.771936,2569.516165 3122.868662,2567.129614"/>
    <poly id="1120307153" type="building.apartments" color="255,230,230" fill="1" layer="-1.00" shape="3118.135222,2578.461544 3140.513270,2580.929200 3139.122786,2593.376426 3133.994249,2592.808151 3133.397369,2598.171197 3116.147891,2596.271821 3118.135222,2578.461544"/>
    <poly id="1120307154" type="building.apartments" color="255,230,230" fill="1" layer="-1.00" shape="3111.600984,2616.436277 3113.240797,2603.896728 3137.016245,2606.975900 3135.376567,2619.526528 3111.600984,2616.436277"/>
    <poly id="1120307155" type="building.apartments" color="255,230,230" fill="1" layer="-1.00" shape="3105.901791,2637.593055 3108.111035,2620.455763 3134.387725,2623.797806 3133.123664,2628.372405 3131.471728,2640.080705 3105.901791,2637.593055"/>
    <poly id="1120307156" type="building.apartments" color="255,230,230" fill="1" layer="-1.00" shape="3107.779054,2666.510262 3109.721055,2648.900181 3135.179313,2651.666606 3133.237434,2669.287764 3107.779054,2666.510262"/>
    <poly id="1120307157" type="building.apartments" color="255,230,230" fill="1" layer="-1.00" shape="3139.954091,2670.320675 3141.975423,2648.884910 3154.904498,2650.093413 3152.892782,2671.529035 3139.954091,2670.320675"/>
    <poly id="1120307158" type="building.apartments" color="255,230,230" fill="1" layer="-1.00" shape="3146.669405,2614.318110 3159.769834,2616.034064 3156.727771,2638.892561 3143.627368,2637.176611 3146.669405,2614.318110"/>
    <poly id="1120307159" type="building.apartments" color="255,230,230" fill="1" layer="-1.00" shape="3163.258239,2637.733246 3165.873470,2616.022786 3179.493195,2617.642517 3176.878099,2639.364056 3163.258239,2637.733246"/>
    <poly id="1120307160" type="building.apartments" color="255,230,230" fill="1" layer="-1.00" shape="3184.564557,2642.101145 3186.879758,2618.987188 3199.896755,2620.272065 3197.591168,2643.385878 3184.564557,2642.101145"/>
    <poly id="1120307161" type="building.apartments" color="255,230,230" fill="1" layer="-1.00" shape="3206.965888,2652.140063 3209.128498,2626.489729 3227.471931,2628.029669 3225.309119,2653.668915 3206.965888,2652.140063"/>
    <poly id="1120307162" type="building.apartments" color="255,230,230" fill="1" layer="-1.00" shape="3228.630232,2655.272330 3230.668892,2630.377628 3245.468410,2631.570099 3243.420077,2656.464937 3228.630232,2655.272330"/>
    <poly id="1120307163" type="building.apartments" color="255,230,230" fill="1" layer="-1.00" shape="3227.881071,2664.750348 3242.411092,2665.979992 3240.819210,2684.471790 3226.298854,2683.242009 3227.881071,2664.750348"/>
    <poly id="1120307164" type="building.apartments" color="255,230,230" fill="1" layer="-1.00" shape="3201.309944,2678.927647 3202.706125,2656.270496 3216.661882,2657.131556 3215.255870,2679.777761 3201.309944,2678.927647"/>
    <poly id="1120307165" type="building.apartments" color="255,230,230" fill="1" layer="-1.00" shape="3182.983932,2677.254473 3185.099611,2655.008097 3198.791568,2656.294228 3196.685503,2678.540461 3182.983932,2677.254473"/>
    <poly id="1120307166" type="building.apartments" color="255,230,230" fill="1" layer="-1.00" shape="3164.478335,2653.978079 3179.479963,2655.145346 3177.777022,2676.598636 3162.775261,2675.420289 3164.478335,2653.978079"/>
    <poly id="1120307167" type="building.apartments" color="255,230,230" fill="1" layer="-1.00" shape="3158.135801,2809.080632 3159.180911,2790.796312 3165.550230,2791.158070 3166.151121,2780.773181 3162.252337,2780.552815 3163.237605,2763.455530 3183.252780,2764.594129 3180.630909,2810.349391 3158.135801,2809.080632"/>
    <poly id="1120307168" type="building.apartments" color="255,230,230" fill="1" layer="-1.00" shape="3149.257336,2749.646899 3178.957928,2751.741921 3180.536288,2729.680733 3150.835475,2727.574621 3149.257336,2749.646899"/>
    <poly id="1120307169" type="building.apartments" color="255,230,230" fill="1" layer="-1.00" shape="3119.960293,2742.158468 3123.084870,2722.325124 3136.953558,2724.495450 3133.828957,2744.328789 3119.960293,2742.158468"/>
    <poly id="1120307170" type="building.apartments" color="255,230,230" fill="1" layer="-1.00" shape="3273.528417,2964.195712 3274.933960,2938.201662 3302.841352,2939.691203 3301.435583,2965.674164 3297.093094,2965.438039 3273.528417,2964.195712"/>